Playing 4 rounds

Initial

  1C  
  0M  
   ---
   ---
  2( )
   ---
  3M  


======================
Round 1
======================
0 mouse's turn
0 mouse: Targetting 2
0 mouse: Going from (1,0) to (2,0)
  1C  
   ---
  0M  
   ---
  2( )
   ---
  3M  

1 cat's turn
1 cat: Targetting 0
1 cat: Going from (0,0) to (1,0)
   ---
  1C  
  0M  
   ---
  2( )
   ---
  3M  

3 mouse's turn
3 mouse: Targetting 2
3 mouse: Going from (6,0) to (5,0)
   ---
  1C  
  0M  
   ---
  2( )
  3M  
   ---

======================
Round 2
======================
0 mouse's turn
0 mouse: Going from (2,0) to (3,0)
   ---
  1C  
   ---
  0M  
  2( )
  3M  
   ---

1 cat's turn
1 cat: Going from (1,0) to (2,0)
   ---
   ---
  1C  
  0M  
  2( )
  3M  
   ---

3 mouse's turn
3 mouse: Safe at last
   ---
   ---
  1C  
  0M  
  3Mok
   ---
   ---

======================
Round 3
======================
0 mouse's turn
3 mouse to 0 mouse: This is my spot, find your own!
   ---
   ---
  1C  
  0M  
  3Mok
   ---
   ---

1 cat's turn
0 mouse: Farewell cruel world
1 cat to 0 mouse: Dinner is served
   ---
   ---
   ---
  1C  
  3Mok
   ---
   ---

======================
Round 4
======================
1 cat's turn
   ---
   ---
   ---
  1C  
  3Mok
   ---
   ---

Max rounds reached
